# File generated by Flopy version 3.9.3 on 07/19/2025 at 16:51:37.
BEGIN options
  XORIGIN       0.00000000
  YORIGIN       0.00000000
END options

BEGIN dimensions
  NLAY  5
  NROW  41
  NCOL  73
END dimensions

BEGIN griddata
  delr
    CONSTANT    2500.00000000
  delc
    CONSTANT    2500.00000000
  top
    INTERNAL  FACTOR  1.0
       101.72914124     101.09039307     101.09845734     101.13024139     101.22142792     101.25666046     101.25666046     101.25666046     101.28726959     101.28726959     101.23593903     101.23593903     101.02922058     101.02922058     100.70333862     100.61952209      99.61818695      99.61818695      99.06137085      97.70894623      97.52515411      96.95259857      95.87101746      95.09060669      94.44600677      92.22425842      90.56587982      90.18769073      87.03125000      87.03125000      83.31587219      83.31587219      80.09763336      75.64496613      75.64496613      70.97997284      70.97997284      67.70229340      67.19194031      67.00645447      67.00645447      66.32443237      66.26735687      66.26735687      65.70725250      65.70725250      65.15328217      65.15328217      63.83684158      63.83684158      62.15637970      62.15637970      62.15637970      60.18175125      60.18175125      59.30734634      58.35778427      52.93722153      52.93722153      52.93722153      51.20437241      51.20437241      51.20437241      51.20437241      50.16458130      48.97345734      47.71946335      47.71946335      47.71946335      47.71946335      44.04087067      44.04087067      40.99962997
       101.72914124     101.72914124     101.09039307     101.09845734     101.13024139     101.22142792     101.25666046     101.25666046     101.25666046     101.28726959     101.23593903     101.23593903     101.23593903     101.02922058     100.70333862     100.61952209      99.61818695      99.61818695      99.06137085      97.70894623      97.52515411      96.95259857      95.87101746      95.09060669      94.44600677      92.22425842      90.56587982      90.18769073      87.03125000      87.03125000      83.31587219      80.09763336      80.09763336      75.64496613      71.40554810      70.97997284      70.97997284      67.70229340      67.19194031      67.00645447      67.00645447      66.32443237      66.26735687      66.26735687      65.70725250      65.15328217      65.15328217      64.65097809      63.83684158      63.83684158      62.15637970      62.15637970      60.18175125      60.18175125      60.18175125      59.30734634      58.35778427      52.93722153      52.93722153      52.93722153      51.20437241      51.20437241      51.20437241      50.16458130      48.97345734      47.71946335      47.71946335      47.71946335      47.71946335      47.71946335      44.04087067      40.99962997      40.99962997
       102.49778748     101.72914124     101.72914124     101.09039307     101.09845734     101.13024139     101.22142792     101.25666046     101.25666046     101.28726959     101.28726959     101.23593903     101.23593903     101.02922058     100.70333862     100.61952209     100.14676666      99.58812714      99.11627960      98.42934990      97.62367058      96.83052444      95.90703964      94.87867737      93.58907700      92.05834389      90.66690063      88.90360260      87.03125000      84.60424805      83.31587219      80.09763336      76.24244690      75.64496613      71.40554810      70.97997284      68.26151276      67.70229340      67.19194031      67.00645447      67.00645447      66.32443237      66.26735687      65.70725250      65.70725250      65.15328217      65.15328217      63.83684158      63.83684158      63.17837143      62.15637970      62.15637970      60.18175125      60.18175125      59.30734634      58.35778427      52.93722153      52.93722153      52.93722153      51.20437241      51.20437241      51.20437241      51.20437241      50.16458130      48.97345734      47.71946335      47.71946335      47.71946335      47.71946335      44.04087067      40.99962997      40.99962997      40.99962997
       102.49778748     102.49778748     101.72914124     101.11743927     101.09039307     101.09845734     101.13024139     101.22142792     101.25666046     101.25666046     101.28726959     101.25476837     101.23593903     101.13008118     100.87582970     100.55167007     100.12549973      99.59672546      98.99570847      98.29632759      97.49979591      96.62666512      95.63648796      94.51552963      93.21659851      91.75205421      90.17319870      88.39156342      86.46804619      84.27506638      82.04062843      80.09763336      76.24244690      75.64496613      71.40554810      70.97997284      68.26151276      67.70229340      67.19194031      67.00645447      67.00645447      66.32443237      66.26735687      65.70725250      65.70725250      65.15328217      64.65097809      63.83684158      63.83684158      62.15637970      62.15637970      61.36823273      60.18175125      60.18175125      59.30734634      58.35778427      52.93722153      52.93722153      52.93722153      51.20437241      51.20437241      51.20437241      50.16458130      48.97345734      47.71946335      47.71946335      47.71946335      47.71946335      44.04087067      44.04087067      40.99962997      40.99962997      40.99962997
       102.49778748     102.49778748     101.72914124     101.72914124     101.11743927     101.09039307     101.09845734     101.13024139     101.22142792     101.25666046     101.26985931     101.27477264     101.18112564     100.99054337     100.70263100     100.32287216      99.86116219      99.30881310      98.67218018      97.94681358      97.12798691      96.20763969      95.17485809      94.00497627      92.68157387      91.19332123      89.54750061      87.71474266      85.69062614      83.48107147      81.11656189      78.60345078      76.04472542      73.49691200      71.49675941      69.71296692      68.26151276      67.70229340      67.19194031      67.00645447      66.48759460      66.32443237      66.26735687      65.70725250      65.15328217      65.15328217      64.65097809      63.83684158      63.17837143      62.15637970      62.15637970      60.18175125      60.18175125      59.30734634      58.35778427      58.35778427      52.93722153      52.93722153      52.93722153      51.20437241      51.20437241      51.20437241      50.16458130      48.97345734      47.71946335      47.71946335      47.71946335      44.04087067      44.04087067      40.99962997      40.99962997      40.99962997      36.22415924
       102.76670074     102.49778748     102.49778748     101.72914124     101.72914124     101.11743927     101.09039307     101.09845734     101.13024139     101.22142792     101.21371651     101.11575508     100.92962456     100.65769005     100.30346107      99.87364006      99.36923981      98.78503799      98.12035370      97.37171936      96.52769852      95.58351326      94.51944542      93.32313919      91.97181129      90.45553207      88.75969696      86.86601830      84.76544380      82.47023201      79.97967720      77.38086319      74.80187225      72.44065285      70.52725601      69.03093910      68.01521683      67.39005661      67.01185989      66.71934128      66.45563507      66.24124908      65.88309479      65.70725250      65.15328217      64.65097809      63.83684158      63.83684158      63.17837143      62.15637970      61.36823273      60.18175125      60.18175125      59.30734634      58.35778427      55.99590683      52.93722153      52.93722153      52.93722153      51.20437241      51.20437241      50.16458130      48.97345734      47.71946335      47.71946335      47.71946335      47.71946335      44.04087067      40.99962997      40.99962997      40.99962997      36.22415924      36.22415924
       103.05901337     102.76670074     102.49778748     102.49778748     101.72914124     101.72914124     101.11743927     101.09039307     101.09845734     101.09973907     100.97169685     100.74442863     100.45031166     100.08860207      99.66962051      99.18452072      98.63896751      98.02443123      97.33522415      96.56623459      95.70717812      94.74692154      93.66992760      92.45800209      91.09206963      89.55267143      87.81938362      85.86591911      83.68199921      81.24723434      78.58632851      75.74568367      72.93645096      70.47756767      68.69462585      67.57619286      66.88293457      66.53072929      66.31436539      66.16305923      66.02028465      65.86084175      65.64310837      65.35966492      64.99370956      64.53422356      63.83684158      63.17837143      62.15637970      62.15637970      61.36823273      60.18175125      59.30734634      58.35778427      58.35778427      55.99590683      52.93722153      52.93722153      51.20437241      51.20437241      51.20437241      50.16458130      48.97345734      47.71946335      47.71946335      47.71946335      44.04087067      44.04087067      40.99962997      40.99962997      36.22415924      36.22415924      36.22415924
       103.35204315     103.05901337     102.76670074     102.49778748     101.72914124     101.72914124     101.33309174     101.11743927     101.02107620     100.80649185     100.49961281     100.12651634      99.71706009      99.26927376      98.77883530      98.24547386      97.65902519      97.01585007      96.30646896      95.52537727      94.65980339      93.69713020      92.62041664      91.40985680      90.04363441      88.49538803      86.73777008      84.74321747      82.46779251      79.88935852      76.96338654      73.74371719      70.26810074      67.33978844      65.78948021      65.20637703      65.08948135      65.11494446      65.18137741      65.21830177      65.22798538      65.16856003      65.03817177      64.81122780      64.49341774      64.06546211      63.54404163      62.93868256      62.15637970      61.36823273      60.18175125      60.18175125      59.30734634      58.35778427      55.99590683      53.80909348      52.93722153      52.93722153      51.20437241      51.20437241      50.16458130      48.97345734      47.71946335      47.71946335      47.71946335      44.04087067      44.04087067      40.99962997      40.99962997      40.99962997      36.22415924      36.22415924      36.22415924
       103.61625671     103.35204315     103.05901337     102.76670074     102.49778748     101.72914124     101.59832764     101.16960335     100.77330971     100.28816414      99.77105522      99.23448181      98.70352936      98.16464233      97.61276817      97.03079414      96.41285706      95.74554253      95.02383995      94.23856544      93.37760353      92.42623901      91.36754417      90.17675781      88.83038330      87.29631805      85.53929138      83.51973152      81.18855286      78.47005653      75.28614998      71.48745728      66.79438210      61.93691254      61.43119526      62.15907764      62.76666546      63.26369381      63.65303230      63.95014858      64.11717796      64.17703533      64.13436031      63.98573589      63.72960663      63.37161541      62.90721512      62.34877872      61.69836235      60.93109035      60.16608143      59.30734634      58.35778427      57.69561386      55.99590683      53.80909348      52.93722153      52.93722153      51.20437241      51.20437241      50.16458130      48.97345734      47.71946335      47.71946335      44.04087067      44.04087067      40.99962997      40.99962997      40.99962997      36.22415924      36.22415924      36.22415924      29.29211807
       103.61625671     103.61625671     103.35204315     103.05901337     102.76670074     102.34726715     101.68013954     101.03503227     100.28102303      99.51992607      98.73453331      98.02586365      97.37103462      96.75948334      96.14964676      95.53029823      94.88246918      94.19923210      93.47178650      92.69183159      91.84861183      90.92341232      89.90377617      88.75359154      87.45526123      85.95997238      84.24006844      82.23517036      79.89179420      77.11832047      73.77708435      69.60569000      63.93671989      55.28165722      56.43687153      58.73924446      60.11966801      61.11698341      61.86081409      62.38502598      62.72534275      62.90066433      62.94859219      62.87054729      62.68458939      62.38583469      61.99581146      61.50372314      60.92880535      60.26144123      59.52796364      58.71175480      57.69561386      56.27931976      55.99590683      53.80909348      52.93722153      52.93722153      51.20437241      50.16458130      48.97345734      47.71946335      47.71946335      47.71946335      44.04087067      44.04087067      40.99962997      40.99962997      36.22415924      36.22415924      36.22415924      29.29211807      29.29211807
       104.34490204     103.61625671     103.61625671     103.35204315     102.95305061     102.37607193     101.60685349     100.64277077      99.55579758      98.38195992      97.32070160      96.42414284      95.67505074      95.00958252      94.36967278      93.72187996      93.05387688      92.35856438      91.63182449      90.86761856      90.05379105      89.17551994      88.21135521      87.14025497      85.91341782      84.50145340      82.84718132      80.91790962      78.62547874      75.90876198      72.62084961      68.56877708      63.46476936      57.39170551      53.83539009      55.58083439      57.40794277      58.82580757      59.87263203      60.59890366      61.08050632      61.37210083      61.49460316      61.48265934      61.34965515      61.11121082      60.77743149      60.36144352      59.85800838      59.27424431      58.60976696      57.85392094      56.95673752      55.89697266      54.68847561      53.69454193      52.92079639      51.76757050      51.20437241      50.16458130      48.97345734      47.71946335      47.71946335      44.04087067      44.04087067      40.99962997      40.99962997      36.22415924      36.22415924      36.22415924      29.29211807      29.29211807      29.29211807
       104.34490204     104.34490204     104.07053375     103.65130424     103.17970085     102.42403221     101.38834572     100.07860565      98.51792908      96.88251114      95.38536644      94.32262802      93.55970001      92.90098381      92.25652504      91.59276962      90.90618896      90.20214653      89.48126221      88.73830414      87.97240067      87.16079521      86.28787231      85.31309891      84.19966507      82.90736389      81.38240623      79.56023598      77.40531158      74.82805443      71.76060486      68.08196068      63.77537537      58.89402199      54.09160328      52.24472141      54.67227364      56.48541260      57.76418972      58.65035152      59.23679447      59.59186363      59.77426338      59.80634022      59.72008419      59.53091621      59.25303268      58.89178371      58.46283054      57.95964622      57.38851452      56.72308064      55.95241833      55.08718109      54.15186882      53.23661423      52.32732487      51.37010765      50.39217091      49.29340744      47.71946335      47.71946335      45.84745407      44.04087067      40.99962997      40.99962997      39.85358047      36.22415924      36.22415924      34.95113373      29.29211807      29.29211807      23.74958992
       104.73616028     104.73616028     104.34490204     103.99602509     103.35262871     102.40621376     101.14162064      99.47408104      97.37352180      94.74787903      92.58690643      91.59157181      90.98871803      90.43496132      89.81335640      89.13293076      88.42000580      87.70345306      86.98921204      86.27788544      85.56790352      84.84402657      84.09160423      83.26722336      82.31165314      81.17787361      79.81398010      78.18522072      76.21021652      73.86469841      71.06628990      67.84998131      64.12979221      60.14809799      56.04084587      52.20628834      52.21159172      54.22836876      55.62492275      56.57044983      57.19331551      57.57983303      57.78432751      57.84420490      57.78366852      57.62853336      57.39220905      57.09198284      56.72792149      56.31243992      55.83556366      55.28196621      54.64621353      53.94098473      53.15474892      52.33849335      51.46964073      50.54907513      49.55514622      48.46602821      47.33285522      45.84745407      44.04087067      42.94796753      40.99962997      39.85358047      36.22415924      36.22415924      34.95113373      29.29211807      29.29211807      23.74958992      23.74958992
       105.29252625     104.82328033     104.71783257     104.27540016     103.51857948     102.43297005     100.94722939      98.98778152      96.30339813      92.43929291      87.80183983      88.09054184      88.10093880      87.67421913      87.06546021      86.33447075      85.56327629      84.82860947      84.12285614      83.44058990      82.79803467      82.18455315      81.59368515      80.95822906      80.23468018      79.31672287      78.16722679      76.74769020      75.00009537      72.91138268      70.43682480      67.59659576      64.38735676      60.91476822      57.23904800      53.41691399      50.40371323      52.14377308      53.48764992      54.37707710      54.95536613      55.32055092      55.51646137      55.57551575      55.52199078      55.38056946      55.17603493      54.92004967      54.63065910      54.30193329      53.93874741      53.50920582      53.01434040      52.43599510      51.78062916      51.05545235      50.25157547      49.36743641      48.38958454      47.30707264      46.10150814      44.65957355      42.94796753      40.99962997      39.85358047      36.22415924      36.22415924      34.95113373      29.29211807      29.29211807      29.29211807      23.74958992      20.11955261
       105.29252625     105.29252625     105.07299995     104.54012489     103.69771004     102.51261711     100.93287277      98.85027885      96.05740547      92.25388908      87.71578217      85.09891319      85.20700455      84.69593239      84.08127022      83.18267250      82.27869034      81.53523636      80.84311104      80.17500114      79.60716629      79.12045288      78.74215126      78.39524269      77.94936943      77.30520248      76.42748070      75.25027084      73.75676727      71.93965340      69.78251076      67.27908134      64.46515846      61.41028118      58.07873726      54.53338909      50.56323338      50.27897835      51.37816715      52.04538250      52.49597168      52.78893471      52.94829082      52.98187828      52.90969467      52.76028919      52.56580830      52.35066128      52.13107872      51.90301323      51.65494633      51.37667847      51.02014446      50.57977390      50.04560375      49.41649246      48.68115616      47.84344578      46.88991833      45.81944942      44.61423683      43.25357246      41.73305321      40.14879990      38.48136902      36.22415924      34.95113373      33.47934341      29.29211807      29.29211807      23.74958992      23.74958992      20.11955261
       106.12169647     105.89523315     105.40356255     104.80294991     103.90526962     102.68090248     101.08346939      99.04924202      96.50223923      93.37776566      89.99579239      86.54878807      84.21501923      82.08333206      81.00948524      79.66846657      78.32106209      77.91747665      77.14462852      76.33711624      75.93794250      75.50532341      75.50619698      75.53356934      75.48132515      75.17485237      74.58961105      73.69158554      72.48738670      70.92067337      69.06289101      66.86081314      64.39575195      61.67090988      58.69110394      55.46007824      51.92859077      48.88920593      49.17807007      49.47347736      49.71229553      49.93847084      50.05376911      50.03948307      49.91447830      49.72622585      49.51764297      49.32637024      49.17366123      49.06250095      48.97364140      48.85044193      48.66644287      48.38218403      47.97351360      47.44157410      46.77826405      45.98149776      45.06100845      44.00960636      42.82618523      41.50480556      40.04701614      38.44771481      36.58585835      34.95113373      33.47934341      29.29211807      29.29211807      23.74958992      23.74958992      20.11955261      20.11955261
       106.34687805     106.09460449     105.69232941     105.04867744     104.12843704     102.90418625     101.34943962      99.45505905      97.17071533      94.59736633      91.79848671      89.09489441      86.68917465      84.53989220      82.73311996      81.04841423      79.29252434      77.48893738      75.88121796      73.94332695      72.48064995      70.97222519      71.78060722      72.44762039      72.80815506      72.94762230      72.68759155      72.10437584      71.13545609      69.85037422      68.24650192      66.33585739      64.15296841      61.74716568      59.09328651      56.22303963      53.15137959      49.96884441      47.49906731      46.71145630      46.39132977      46.73110580      46.83437634      46.71594143      46.50871754      46.22031212      45.96521664      45.76970291      45.68093014      45.73058319      45.84876156      45.95013618      45.95089531      45.84778118      45.56966019      45.13887310      44.54358101      43.79217720      42.89442348      41.86286736      40.70293713      39.41920471      38.00846291      36.47469139      34.81149101      33.02515030      29.89176750      29.29211807      26.27565956      23.74958992      20.11955261      20.11955261      17.02588463
       106.36669159     106.28473282     105.90569496     105.25901222     104.34261703     103.14544106     101.66307831      99.88550758      97.85799217      95.57631493      93.20384789      90.80578613      88.54991722      86.45367432      84.51593399      82.68471527      80.86518669      79.06352615      77.28759003      75.48286247      73.68161964      71.78023911      69.58333206      68.92217064      70.08768845      70.67301559      70.79194832      70.46696854      69.76879692      68.71186256      67.33580971      65.67958260      63.75434589      61.59904194      59.25539494      56.73362732      54.11617470      51.50740814      49.11567593      46.97022629      44.88787651      43.58854485      43.37361622      42.91806221      42.66696835      42.14228249      41.84992027      41.57053185      41.52027321      41.81072521      42.24319935      42.61337948      42.89335346      42.98054409      42.86881924      42.53088093      41.99322224      41.26920891      40.38468075      39.35996342      38.21306610      36.95529270      35.59804726      34.13541603      32.56412792      30.85545015      28.98723173      27.08230829      23.74958992      22.36495781      20.11955261      20.11955261      17.02588463
       106.51152039     106.44458580     106.07001495     105.42697144     104.52304840     103.36063194     101.94473839     100.29001808      98.41606903      96.37094307      94.20949173      92.02602959      89.87996292      87.81725883      85.84416389      83.93562698      82.06569099      80.21359825      78.37737846      76.52923584      74.65546417      72.70726967      70.66285515      68.53992844      67.62873840      68.50755692      68.90453720      68.82979202      68.34098625      67.49753189      66.33189201      64.87486649      63.16841888      61.26463318      59.16733265      56.93725872      54.63448906      52.35406685      50.16286182      48.08479881      46.08617496      44.12688160      42.37463665      40.55573368      39.13697720      37.63888931      37.51133347      36.50035954      36.27034187      37.27438068      38.08743858      38.91616154      39.51968765      39.85114098      39.88111877      39.63575745      39.13436413      38.41272640      37.51450157      36.47248363      35.32118225      34.07917786      32.75877285      31.37345839      29.91215229      28.37567806      26.72147036      24.97268677      23.06769323      20.63467407      20.11955261      17.02588463      15.80568409
       106.75563049     106.58150673     106.18547630     105.54239273     104.65299416     103.52113152     102.15974236     100.58088493      98.82833862      96.91491318      94.90031052      92.83150482      90.76277161      88.72740173      86.73714828      84.78899193      82.87523079      80.98244476      79.10159111      77.21981239      75.31689453      73.36845016      71.35187149      69.23971367      66.87929535      66.61349869      67.11062813      67.21284294      66.90636063      66.22430801      65.21289825      63.92282867      62.40632343      60.66845226      58.78980350      56.78177166      54.72100544      52.64375973      50.63508320      48.67712498      46.79391193      44.97424030      43.23463345      41.56133366      39.97505093      38.38684845      36.82707596      35.29882050      33.62361526      32.67286205      33.38682652      34.83605766      35.89457607      36.47599602      36.66124153      36.48292255      35.98257351      35.22126007      34.25573540      33.15917873      31.97678995      30.73328876      29.44322920      28.11675453      26.77671766      25.41179895      24.03121710      22.55325651      21.03233290      19.45440912      17.80286360      17.02588463      15.80568409
       106.79226685     106.63977242     106.23821831     105.59339714     104.71114349     103.60039520     102.27223206     100.75260353      99.06037331      97.23142433      95.29038048      93.29025459      91.26047707      89.23440933      87.22971725      85.24938774      83.30039024      81.37088776      79.46072197      77.55668640      75.64609146      73.71259117      71.73632050      69.70177650      67.56607819      65.48379135      65.28215027      65.64936638      65.45361900      64.87834358      63.98004532      62.82129192      61.42690849      59.84396744      58.10203075      56.25356960      54.35628319      52.45164299      50.58111382      48.76482582      46.99666500      45.27047157      43.59254360      41.95706940      40.36259937      38.79004478      37.23427773      35.68668652      34.09559441      32.46407843      30.77742100      30.75880909      32.19674540      32.97417450      33.26812077      33.12042236      32.56153774      31.67589092      30.57087803      29.35845423      28.11968040      26.84768867      25.56468391      24.29083157      23.06709003      21.90917969      20.78440714      19.66090775      18.50045729      17.37361813      16.27713513      15.47999215      15.49600315
       106.78748322     106.63230133     106.22091293     105.56984329     104.68689537     103.58262062     102.27228355     100.77410698      99.11571312      97.31713295      95.41015053      93.42810631      91.40471268      89.36892319      87.33735657      85.32594490      83.33704758      81.37924194      79.44279099      77.52721024      75.62164497      73.71533012      71.80405235      69.86112213      67.90367126      65.90295219      64.17164040      64.15467644      63.99283409      63.46045589      62.62023354      61.53173065      60.23611641      58.74736214      57.10468292      55.35602951      53.56354141      51.78592587      50.04915428      48.36123276      46.70742512      45.07305622      43.45370102      41.84416866      40.27072906      38.71003819      37.15675831      35.64240551      34.14446831      32.62993336      31.06258535      29.41195154      28.19294214      29.39315033      29.77075481      29.60906219      28.91563988      27.76466799      26.34334850      24.98420095      23.65744019      22.34181309      21.03635883      19.76816750      18.62167454      17.73914576      16.96737766      16.18413830      15.38748503      14.61146283      13.93295765      13.48880601      13.19070244
       106.74826813     106.56211853     106.13214302     105.46595764     104.57163239     103.46081543     102.14578056     100.64659309      98.98483467      97.18126488      95.26220322      93.26374245      91.21562386      89.14289093      87.06914139      85.01241112      82.98807907      80.99452591      79.03748894      77.11358643      75.21927834      73.34930992      71.49807739      69.67393112      67.85494232      66.04219437      64.22515488      62.78533077      62.52678585      61.94315720      61.10137939      60.05259323      58.83075905      57.40166283      55.78758717      54.08206558      52.31761837      50.63338470      49.02726364      47.47535706      45.94344330      44.41537666      42.85239697      41.22850609      39.69616318      38.17199993      36.53789043      35.11006832      33.69882011      32.39349985      30.98870182      29.50199270      27.99663019      26.53583336      26.32283449      26.08920383      25.10880423      23.59714079      21.30992222      19.87457085      18.49493885      17.12077045      15.75659752      14.41175842      13.13824511      12.86005116      12.40458751      12.07345629      11.61143494      11.18352652      10.75502825      10.42938662      10.75050068