# File generated by Flopy version 3.9.3 on 07/19/2025 at 16:51:37.
BEGIN options
  READASARRAYS
END options

BEGIN period  1
  recharge
    CONSTANT  1.00000000E-06
END period  1

